@<TRIPOS>MOLECULE
title: molecule 1
59   64    1
SMALL
USER_CHARGES


@<TRIPOS>ATOM
      1 C1        151.3040  171.1780  219.8680 C.ar      1 UNK         0.0000 
      2 C2        151.4730  170.4420  221.0640 C.ar      1 UNK         0.0000 
      3 C3        151.6780  171.1010  222.3060 C.ar      1 UNK         0.0000 
      4 C4        151.7150  172.5120  222.3780 C.ar      1 UNK         0.0000 
      5 C5        151.5510  173.2150  221.1740 C.ar      1 UNK         0.0000 
      6 C6        151.3560  172.5800  219.9630 C.ar      1 UNK         0.0000 
      7 N1        151.5560  174.5850  220.9130 N.pl3     1 UNK         0.0000 
      8 C7        151.3770  174.7940  219.5960 C.ar      1 UNK         0.0000 
      9 O1        151.3320  175.9000  219.0500 O.2       1 UNK         0.0000 
     10 N2        151.2590  173.5900  218.9860 N.pl3     1 UNK         0.0000 
     11 C8        151.1510  173.3610  217.5410 C.3       1 UNK         0.0000 
     12 C9        152.3600  172.6100  216.9370 C.3       1 UNK         0.0000 
     13 C10       153.7370  173.0330  217.4740 C.3       1 UNK         0.0000 
     14 S1        154.2150  174.7190  216.9860 S.3       1 UNK         0.0000 
     15 C11       155.3100  174.3550  215.6510 C.ar      1 UNK         0.0000 
     16 N3        156.5720  174.7990  215.7570 N.ar      1 UNK         0.0000 
     17 N4        157.4170  174.6000  214.7260 N.ar      1 UNK         0.0000 
     18 N5        154.7270  173.7060  214.6510 N.ar      1 UNK         0.0000 
     19 C12       155.5990  173.5200  213.6280 C.ar      1 UNK         0.0000 
     20 C13       156.9380  173.9840  213.6340 C.ar      1 UNK         0.0000 
     21 C14       157.4620  173.6770  212.3260 C.ar      1 UNK         0.0000 
     22 N6        155.3030  172.8620  212.4490 N.pl3     1 UNK         0.0000 
     23 C15       156.3990  173.0560  211.5990 C.ar      1 UNK         0.0000 
     24 C16       156.5610  172.7200  210.2370 C.ar      1 UNK         0.0000 
     25 C17       157.7920  172.9410  209.5960 C.ar      1 UNK         0.0000 
     26 C18       158.8610  173.5080  210.3060 C.ar      1 UNK         0.0000 
     27 C19       158.6910  173.8740  211.6550 C.ar      1 UNK         0.0000 
     28 C20       154.0280  172.2470  212.1390 C.3       1 UNK         0.0000 
     29 C21       153.5860  171.1100  213.0830 C.3       1 UNK         0.0000 
     30 C22       152.1540  170.6640  212.8260 C.ar      1 UNK         0.0000 
     31 C23       151.2400  170.5640  213.8970 C.ar      1 UNK         0.0000 
     32 C24       149.9140  170.1450  213.6670 C.ar      1 UNK         0.0000 
     33 C25       149.4960  169.8170  212.3640 C.ar      1 UNK         0.0000 
     34 C26       150.4030  169.9050  211.2900 C.ar      1 UNK         0.0000 
     35 C27       151.7300  170.3190  211.5210 C.ar      1 UNK         0.0000 
     36 H1        151.6990  175.2920  221.6190 H         1 UNK         0.0000 
     37 H2        151.1530  170.6780  218.9250 H         1 UNK         0.0000 
     38 H3        151.4590  169.3620  221.0360 H         1 UNK         0.0000 
     39 H4        151.8090  170.5150  223.2050 H         1 UNK         0.0000 
     40 H5        151.8680  173.0240  223.3160 H         1 UNK         0.0000 
     41 H6        150.2320  172.8080  217.3400 H         1 UNK         0.0000 
     42 H7        151.0410  174.3180  217.0270 H         1 UNK         0.0000 
     43 H8        152.2450  171.5440  217.1260 H         1 UNK         0.0000 
     44 H9        152.3410  172.7180  215.8530 H         1 UNK         0.0000 
     45 H10       153.7370  172.9600  218.5610 H         1 UNK         0.0000 
     46 H11       154.5030  172.3340  217.1350 H         1 UNK         0.0000 
     47 H12       155.7440  172.2890  209.6790 H         1 UNK         0.0000 
     48 H13       157.9140  172.6640  208.5600 H         1 UNK         0.0000 
     49 H14       159.8100  173.6780  209.8170 H         1 UNK         0.0000 
     50 H15       159.5210  174.3180  212.1800 H         1 UNK         0.0000 
     51 H16       153.2860  173.0410  212.1820 H         1 UNK         0.0000 
     52 H17       154.0700  171.8820  211.1170 H         1 UNK         0.0000 
     53 H18       154.2310  170.2390  212.9820 H         1 UNK         0.0000 
     54 H19       153.6700  171.4160  214.1250 H         1 UNK         0.0000 
     55 H20       151.5500  170.7960  214.9020 H         1 UNK         0.0000 
     56 H21       149.2250  170.0660  214.4950 H         1 UNK         0.0000 
     57 H22       148.4810  169.4860  212.1910 H         1 UNK         0.0000 
     58 H23       150.0850  169.6380  210.2930 H         1 UNK         0.0000 
     59 H24       152.4200  170.3640  210.6920 H         1 UNK         0.0000 
@<TRIPOS>BOND
     1    1    6 ar   
     2    1    2 ar   
     3    1   37 1    
     4    2    3 ar   
     5    2   38 1    
     6    3    4 ar   
     7    3   39 1    
     8    4    5 ar   
     9    4   40 1    
    10    5    6 ar   
    11    5    7 ar   
    12    6   10 ar   
    13    7   36 1    
    14    7    8 ar   
    15    8    9 2    
    16    8   10 ar   
    17   10   11 1    
    18   11   12 1    
    19   11   41 1    
    20   11   42 1    
    21   12   13 1    
    22   12   43 1    
    23   12   44 1    
    24   13   14 1    
    25   13   45 1    
    26   13   46 1    
    27   14   15 1    
    28   15   16 ar   
    29   15   18 ar   
    30   16   17 ar   
    31   17   20 ar   
    32   18   19 ar   
    33   19   20 ar   
    34   19   22 ar   
    35   20   21 ar   
    36   21   23 ar   
    37   21   27 ar   
    38   22   23 ar   
    39   22   28 1    
    40   23   24 ar   
    41   24   25 ar   
    42   24   47 1    
    43   25   26 ar   
    44   25   48 1    
    45   26   27 ar   
    46   26   49 1    
    47   27   50 1    
    48   28   29 1    
    49   28   51 1    
    50   28   52 1    
    51   29   30 1    
    52   29   53 1    
    53   29   54 1    
    54   30   35 ar   
    55   30   31 ar   
    56   31   32 ar   
    57   31   55 1    
    58   32   33 ar   
    59   32   56 1    
    60   33   34 ar   
    61   33   57 1    
    62   34   35 ar   
    63   34   58 1    
    64   35   59 1    
@<TRIPOS>SUBSTRUCTURE
     1 UNK         1 GROUP             0       ****    0 ROOT    
