@<TRIPOS>MOLECULE
title: molecule 1
57   60    1
SMALL
USER_CHARGES


@<TRIPOS>ATOM
      1 C1        150.3340  169.8140  209.8540 C.3       1 UNK         0.0000 
      2 O1        149.3540  170.4810  210.6390 O.3       1 UNK         0.0000 
      3 C2        149.5930  170.6180  211.9900 C.ar      1 UNK         0.0000 
      4 C3        148.5420  171.1190  212.7800 C.ar      1 UNK         0.0000 
      5 C4        148.7150  171.3220  214.1610 C.ar      1 UNK         0.0000 
      6 C5        150.8190  170.2880  212.6190 C.ar      1 UNK         0.0000 
      7 C6        150.9960  170.4600  214.0070 C.ar      1 UNK         0.0000 
      8 C7        152.3280  170.0460  214.6180 C.3       1 UNK         0.0000 
      9 C8        149.9470  171.0180  214.7850 C.ar      1 UNK         0.0000 
     10 C9        150.1050  171.2740  216.2600 C.2       1 UNK         0.0000 
     11 O2        150.2320  170.3190  217.0250 O.2       1 UNK         0.0000 
     12 N1        150.1040  172.5600  216.6900 N.am      1 UNK         0.0000 
     13 C10       150.0070  173.7210  215.7930 C.3       1 UNK         0.0000 
     14 C11       150.2900  172.8830  218.1130 C.3       1 UNK         0.0000 
     15 C12       151.7540  172.7380  218.5890 C.3       1 UNK         0.0000 
     16 C13       152.7450  173.4190  217.6980 C.2       1 UNK         0.0000 
     17 N2        153.3560  172.7830  216.6650 N.2       1 UNK         0.0000 
     18 C14       154.1270  173.7510  216.1820 C.2       1 UNK         0.0000 
     19 O3        153.9440  174.9470  216.7900 O.3       1 UNK         0.0000 
     20 N3        152.9940  174.7180  217.7980 N.2       1 UNK         0.0000 
     21 C15       154.9730  173.7080  215.0020 C.ar      1 UNK         0.0000 
     22 C16       156.2560  174.1540  214.7890 C.ar      1 UNK         0.0000 
     23 C17       157.1390  174.8500  215.7770 C.3       1 UNK         0.0000 
     24 N4        154.4930  173.1360  213.8350 N.pl3     1 UNK         0.0000 
     25 C18       155.4460  173.1880  212.8410 C.ar      1 UNK         0.0000 
     26 C19       156.5850  173.7970  213.4330 C.ar      1 UNK         0.0000 
     27 C20       155.4400  172.7700  211.5000 C.ar      1 UNK         0.0000 
     28 C21       156.5850  172.9680  210.7050 C.ar      1 UNK         0.0000 
     29 C22       157.7430  173.5340  211.2730 C.ar      1 UNK         0.0000 
     30 C23       158.9940  173.7310  210.4400 C.3       1 UNK         0.0000 
     31 C24       157.7370  173.9170  212.6300 C.ar      1 UNK         0.0000 
     32 H1        153.5680  172.7330  213.7650 H         1 UNK         0.0000 
     33 H2        149.9720  169.7210  208.8310 H         1 UNK         0.0000 
     34 H3        150.5240  168.8070  210.2300 H         1 UNK         0.0000 
     35 H4        151.2700  170.3730  209.8260 H         1 UNK         0.0000 
     36 H5        147.5980  171.3690  212.3170 H         1 UNK         0.0000 
     37 H6        147.8950  171.7210  214.7430 H         1 UNK         0.0000 
     38 H7        151.6440  169.8960  212.0450 H         1 UNK         0.0000 
     39 H8        152.1830  169.3790  215.4680 H         1 UNK         0.0000 
     40 H9        152.9550  169.5200  213.8990 H         1 UNK         0.0000 
     41 H10       152.8830  170.9150  214.9520 H         1 UNK         0.0000 
     42 H11       150.7350  173.6280  214.9820 H         1 UNK         0.0000 
     43 H12       149.0020  173.8030  215.3680 H         1 UNK         0.0000 
     44 H13       150.2300  174.6640  216.2930 H         1 UNK         0.0000 
     45 H14       149.9620  173.9040  218.3020 H         1 UNK         0.0000 
     46 H15       149.6380  172.2570  218.7250 H         1 UNK         0.0000 
     47 H16       151.8550  173.1320  219.5990 H         1 UNK         0.0000 
     48 H17       152.0190  171.6810  218.6500 H         1 UNK         0.0000 
     49 H18       158.1020  175.1120  215.3370 H         1 UNK         0.0000 
     50 H19       156.6810  175.7730  216.1370 H         1 UNK         0.0000 
     51 H20       157.3360  174.2180  216.6410 H         1 UNK         0.0000 
     52 H21       154.5560  172.3180  211.0740 H         1 UNK         0.0000 
     53 H22       156.5760  172.6650  209.6690 H         1 UNK         0.0000 
     54 H23       159.5320  174.6280  210.7550 H         1 UNK         0.0000 
     55 H24       159.6620  172.8760  210.5510 H         1 UNK         0.0000 
     56 H25       158.7520  173.8470  209.3830 H         1 UNK         0.0000 
     57 H26       158.6330  174.3170  213.0750 H         1 UNK         0.0000 
@<TRIPOS>BOND
     1    1    2 1    
     2    1   33 1    
     3    1   34 1    
     4    1   35 1    
     5    2    3 1    
     6    3    4 ar   
     7    3    6 ar   
     8    4    5 ar   
     9    4   36 1    
    10    5    9 ar   
    11    5   37 1    
    12    6    7 ar   
    13    6   38 1    
    14    7    8 1    
    15    7    9 ar   
    16    8   39 1    
    17    8   40 1    
    18    8   41 1    
    19    9   10 1    
    20   10   11 2    
    21   10   12 am   BACKBONE|DICT|INTERRES
    22   12   13 1    
    23   12   14 1    
    24   13   42 1    
    25   13   43 1    
    26   13   44 1    
    27   14   15 1    
    28   14   45 1    
    29   14   46 1    
    30   15   16 1    
    31   15   47 1    
    32   15   48 1    
    33   16   20 2    
    34   16   17 1    
    35   17   18 2    
    36   18   19 1    
    37   18   21 1    
    38   19   20 1    
    39   21   22 ar   
    40   21   24 ar   
    41   22   26 ar   
    42   22   23 1    
    43   23   49 1    
    44   23   50 1    
    45   23   51 1    
    46   24   32 1    
    47   24   25 ar   
    48   25   26 ar   
    49   25   27 ar   
    50   26   31 ar   
    51   27   28 ar   
    52   27   52 1    
    53   28   29 ar   
    54   28   53 1    
    55   29   30 1    
    56   29   31 ar   
    57   30   54 1    
    58   30   55 1    
    59   30   56 1    
    60   31   57 1    
@<TRIPOS>SUBSTRUCTURE
     1 UNK         1 GROUP             0       ****    0 ROOT    
