# created with PyMOL 2.5.1
@<TRIPOS>MOLECULE
title: molecule 1
71 74 1                 
SMALL
USER_CHARGES
@<TRIPOS>ATOM
1	  C1	154.916	175.863	216.120	C.2	1	01	0.000	
2	  N1	152.710	172.910	216.722	N.pl3	1	01	0.000	
3	  O1	152.850	174.911	217.765	O.2	1	01	0.000	
4	  C2	156.207	176.319	215.782	C.2	1	01	0.000	
5	  N2	154.560	173.179	213.169	N.3	1	01	0.000	
6	  O2	157.737	171.802	208.819	O.3	1	01	0.000	
7	  C3	157.276	175.453	215.675	C.2	1	01	0.000	
8	  O3	160.130	172.321	210.058	O.3	1	01	0.000	
9	  C4	157.026	174.100	215.781	C.2	1	01	0.000	
10	  C5	155.739	173.606	216.079	C.2	1	01	0.000	
11	  C6	154.674	174.490	216.359	C.2	1	01	0.000	
12	  C7	153.356	174.082	217.005	C.2	1	01	0.000	
13	  C8	151.555	172.495	217.552	C.3	1	01	0.000	
14	  C9	150.196	172.541	216.811	C.3	1	01	0.000	
15	 C10	149.856	173.917	216.212	C.3	1	01	0.000	
16	 C11	149.069	172.052	217.733	C.3	1	01	0.000	
17	 C12	153.041	171.905	215.693	C.3	1	01	0.000	
18	 C13	152.650	172.302	214.250	C.3	1	01	0.000	
19	 C14	153.136	171.239	213.232	C.3	1	01	0.000	
20	 C15	151.989	170.547	212.476	C.2	1	01	0.000	
21	 C16	150.840	170.117	213.184	C.2	1	01	0.000	
22	 C17	149.748	169.536	212.508	C.2	1	01	0.000	
23	 C18	149.790	169.376	211.111	C.2	1	01	0.000	
24	 C19	150.937	169.764	210.399	C.2	1	01	0.000	
25	 C20	152.037	170.319	211.082	C.2	1	01	0.000	
26	 C21	154.190	172.003	212.384	C.3	1	01	0.000	
27	 C22	153.274	173.590	213.717	C.3	1	01	0.000	
28	 C23	155.340	174.240	212.489	C.3	1	01	0.000	
29	 C24	156.591	173.726	211.798	C.2	1	01	0.000	
30	 C25	156.543	173.075	210.547	C.2	1	01	0.000	
31	 C26	157.726	172.553	209.963	C.2	1	01	0.000	
32	 C27	156.693	172.046	207.913	C.3	1	01	0.000	
33	 C28	158.964	172.791	210.584	C.2	1	01	0.000	
34	 C29	159.010	173.519	211.775	C.2	1	01	0.000	
35	 C30	157.833	173.921	212.412	C.2	1	01	0.000	
36	  F1	148.729	168.857	210.451	 F	1	01	0.000	
37	  H1	154.133	176.589	216.280	 H	1	01	0.000	
38	  H2	156.476	177.362	215.782	 H	1	01	0.000	
39	  H3	158.278	175.818	215.507	 H	1	01	0.000	
40	  H4	157.908	173.519	215.670	 H	1	01	0.000	
41	  H5	155.677	172.543	216.182	 H	1	01	0.000	
42	  H6	151.736	171.481	217.914	 H	1	01	0.000	
43	  H7	151.476	173.078	218.471	 H	1	01	0.000	
44	  H8	150.241	171.832	215.986	 H	1	01	0.000	
45	  H9	149.753	174.673	216.989	 H	1	01	0.000	
46	 H10	150.624	174.255	215.516	 H	1	01	0.000	
47	 H11	148.914	173.881	215.662	 H	1	01	0.000	
48	 H12	148.895	172.748	218.554	 H	1	01	0.000	
49	 H13	148.136	171.938	217.182	 H	1	01	0.000	
50	 H14	149.306	171.079	218.164	 H	1	01	0.000	
51	 H15	154.060	171.555	215.753	 H	1	01	0.000	
52	 H16	152.496	170.984	215.908	 H	1	01	0.000	
53	 H17	151.569	172.435	214.209	 H	1	01	0.000	
54	 H18	153.662	170.438	213.755	 H	1	01	0.000	
55	 H19	150.783	170.234	214.255	 H	1	01	0.000	
56	 H20	148.874	169.217	213.057	 H	1	01	0.000	
57	 H21	150.976	169.624	209.328	 H	1	01	0.000	
58	 H22	152.907	170.597	210.510	 H	1	01	0.000	
59	 H23	155.129	171.518	212.213	 H	1	01	0.000	
60	 H24	153.803	172.318	211.425	 H	1	01	0.000	
61	 H25	152.637	173.919	212.910	 H	1	01	0.000	
62	 H26	153.334	174.441	214.374	 H	1	01	0.000	
63	 H27	154.753	174.802	211.782	 H	1	01	0.000	
64	 H28	155.625	174.964	213.252	 H	1	01	0.000	
65	 H29	155.586	172.926	210.070	 H	1	01	0.000	
66	 H30	157.026	171.626	206.982	 H	1	01	0.000	
67	 H31	155.758	171.561	208.182	 H	1	01	0.000	
68	 H32	156.538	173.115	207.779	 H	1	01	0.000	
69	 H33	160.892	172.620	210.530	 H	1	01	0.000	
70	 H34	159.968	173.732	212.209	 H	1	01	0.000	
71	 H35	157.904	174.441	213.349	 H	1	01	0.000	
@<TRIPOS>BOND
1 1 4 ar
2 1 11 ar
3 1 37 1
4 2 13 1
5 2 17 1
6 4 7 ar
7 4 38 1
8 5 27 1
9 5 28 1
10 6 32 1
11 7 9 ar
12 7 39 1
13 8 69 1
14 9 10 ar
15 9 40 1
16 10 11 ar
17 10 41 1
18 11 12 1
19 2 12 1
20 3 12 2
21 13 14 1
22 13 42 1
23 13 43 1
24 14 15 1
25 14 16 1
26 14 44 1
27 15 45 1
28 15 46 1
29 15 47 1
30 16 48 1
31 16 49 1
32 16 50 1
33 17 18 1
34 17 51 1
35 17 52 1
36 18 19 1
37 18 27 1
38 18 53 1
39 19 20 1
40 19 26 1
41 19 54 1
42 20 21 ar
43 20 25 ar
44 21 22 ar
45 21 55 1
46 22 23 ar
47 22 56 1
48 23 24 ar
49 23 36 1
50 24 25 ar
51 24 57 1
52 25 58 1
53 5 26 1
54 26 59 1
55 26 60 1
56 27 61 1
57 27 62 1
58 28 29 1
59 28 63 1
60 28 64 1
61 29 30 ar
62 29 35 ar
63 30 31 ar
64 30 65 1
65 6 31 1
66 31 33 ar
67 32 66 1
68 32 67 1
69 32 68 1
70 8 33 1
71 33 34 ar
72 34 35 ar
73 34 70 1
74 35 71 1
@<TRIPOS>SUBSTRUCTURE
1	01	1	GROUP	1 ****	0
